<?xml version="1.0" encoding="UTF-8"?>

<!-- generated on 2023-12-19 16:51:19 by Eclipse SUMO sumo Version 1.18.0
-->

<configuration xmlns:xsi="http://www.w3.org/2001/XMLSchema-instance" xsi:noNamespaceSchemaLocation="http://sumo.dlr.de/xsd/sumoConfiguration.xsd">

    <input>
        <net-file value="final.net.xml"/>
        <additional-files value="define_vehicles.add.xml"/>
        <route-files value="route_project.rou.xml"/>
    </input>

</configuration>
