<?xml version="1.0" encoding="UTF-8"?>

<!-- generated on 2023-11-02 16:58:57 by Eclipse SUMO netedit Version 1.18.0
<configuration xmlns:xsi="http://www.w3.org/2001/XMLSchema-instance" xsi:noNamespaceSchemaLocation="http://sumo.dlr.de/xsd/neteditConfiguration.xsd">

    <input>
        <sumo-net-file value="C:\Pedro\2Ano Mestrado\Paris\Aprendizagem pare reenforcement learning et controle optimal\SUMO\project_network.net.xml"/>
    </input>

    <output>
        <output-file value="C:\Pedro\2Ano Mestrado\Paris\Aprendizagem pare reenforcement learning et controle optimal\SUMO\project_network.net.xml"/>
    </output>

    <processing>
        <geometry.min-radius.fix.railways value="false"/>
        <geometry.max-grade.fix value="false"/>
        <offset.disable-normalization value="true"/>
        <lefthand value="0"/>
    </processing>

    <junctions>
        <no-turnarounds value="true"/>
        <junctions.corner-detail value="5"/>
        <junctions.limit-turn-speed value="5.50"/>
        <rectangular-lane-cut value="0"/>
    </junctions>

    <pedestrian>
        <walkingareas value="0"/>
    </pedestrian>

</configuration>
-->

<net version="1.16" junctionCornerDetail="5" limitTurnSpeed="5.50" xmlns:xsi="http://www.w3.org/2001/XMLSchema-instance" xsi:noNamespaceSchemaLocation="http://sumo.dlr.de/xsd/net_file.xsd">

    <location netOffset="0.00,0.00" convBoundary="-1000.00,52.50,1000.00,86.00" origBoundary="-10000000000.00,-10000000000.00,10000000000.00,10000000000.00" projParameter="!"/>

    <edge id=":J0_0" function="internal">
        <lane id=":J0_0_0" index="0" speed="22.77" length="0.10" shape="-210.04,78.00 -210.04,78.00"/>
        <lane id=":J0_0_1" index="1" speed="22.77" length="0.10" shape="-210.04,81.20 -210.04,81.20"/>
        <lane id=":J0_0_2" index="2" speed="22.77" length="0.10" shape="-210.04,84.40 -210.04,84.40"/>
    </edge>
    <edge id=":junction_0" function="internal">
        <lane id=":junction_0_0" index="0" speed="18.33" length="36.84" shape="-89.77,74.37 -84.06,75.17 -75.21,76.39 -64.49,77.51 -53.14,78.00"/>
    </edge>
    <edge id=":junction_1" function="internal">
        <lane id=":junction_1_0" index="0" speed="22.77" length="36.83" shape="-89.97,78.00 -53.14,78.00"/>
        <lane id=":junction_1_1" index="1" speed="22.77" length="36.83" shape="-89.97,81.20 -53.14,81.20"/>
        <lane id=":junction_1_2" index="2" speed="22.77" length="36.83" shape="-89.97,84.40 -53.14,84.40"/>
    </edge>

    <edge id="before_junction" from="J0" to="junction" priority="-1" length="200.00">
        <lane id="before_junction_0" index="0" speed="22.77" length="200.00" shape="-210.04,78.00 -89.97,78.00"/>
        <lane id="before_junction_1" index="1" speed="22.77" length="200.00" shape="-210.04,81.20 -89.97,81.20"/>
        <lane id="before_junction_2" index="2" speed="22.77" length="200.00" shape="-210.04,84.40 -89.97,84.40"/>
    </edge>
    <edge id="final_stretch" from="junction" to="3" priority="-1">
        <lane id="final_stretch_0" index="0" speed="22.77" length="1053.14" shape="-53.14,78.00 1000.00,78.00"/>
        <lane id="final_stretch_1" index="1" speed="22.77" length="1053.14" shape="-53.14,81.20 1000.00,81.20"/>
        <lane id="final_stretch_2" index="2" speed="22.77" length="1053.14" shape="-53.14,84.40 1000.00,84.40"/>
    </edge>
    <edge id="initial" from="1" to="J0" priority="-1">
        <lane id="initial_0" index="0" speed="22.77" length="789.96" shape="-1000.00,78.00 -210.04,78.00"/>
        <lane id="initial_1" index="1" speed="22.77" length="789.96" shape="-1000.00,81.20 -210.04,81.20"/>
        <lane id="initial_2" index="2" speed="22.77" length="789.96" shape="-1000.00,84.40 -210.04,84.40"/>
    </edge>
    <edge id="ramp" from="4" to="junction" priority="-1">
        <lane id="ramp_0" index="0" speed="300" length="211.36" shape="-299.82,50.91 -89.77,74.37"/>
    </edge>

    <tlLogic id="2" type="static" programID="0" offset="0">
        <phase duration="40" state="GOOO"/>
        <phase duration="5"  state="yOOO"/>
        <phase duration="40" state="rOOO"/>
    </tlLogic>

    <junction id="1" type="dead_end" x="-1000.00" y="86.00" incLanes="" intLanes="" shape="-1000.00,86.00 -1000.00,76.40"/>
    <junction id="3" type="dead_end" x="1000.00" y="86.00" incLanes="final_stretch_0 final_stretch_1 final_stretch_2" intLanes="" shape="1000.00,76.40 1000.00,86.00"/>
    <junction id="4" type="dead_end" x="-300.00" y="52.50" incLanes="" intLanes="" shape="-300.00,52.50 -299.64,49.32"/>
    <junction id="J0" type="priority" x="-210.04" y="86.00" incLanes="initial_0 initial_1 initial_2" intLanes=":J0_0_0 :J0_0_1 :J0_0_2" shape="-210.04,86.00 -210.04,76.40 -210.04,86.00">
        <request index="0" response="000" foes="000" cont="0"/>
        <request index="1" response="000" foes="000" cont="0"/>
        <request index="2" response="000" foes="000" cont="0"/>
    </junction>
    <junction id="junction" type="traffic_light" x="0.00" y="86.00" incLanes="ramp_0 before_junction_0 before_junction_1 before_junction_2" intLanes=":junction_0_0 :junction_1_0 :junction_1_1 :junction_1_2" shape="-53.14,86.00 -53.14,76.40 -60.93,76.27 -66.68,75.91 -71.41,75.35 -76.12,74.62 -81.84,73.75 -89.59,72.78 -89.95,75.96 -89.97,76.40 -89.97,86.00">
        <request index="0" response="1110" foes="1110" cont="0"/>
        <request index="1" response="0000" foes="0001" cont="0"/>
        <request index="2" response="0000" foes="0001" cont="0"/>
        <request index="3" response="0000" foes="0001" cont="0"/>
    </junction>

    <connection from="before_junction" to="final_stretch" fromLane="0" toLane="0" via=":junction_1_0" tl="2" linkIndex="1" dir="s" state="O"/>
    <connection from="before_junction" to="final_stretch" fromLane="1" toLane="1" via=":junction_1_1" tl="2" linkIndex="2" dir="s" state="O"/>
    <connection from="before_junction" to="final_stretch" fromLane="2" toLane="2" via=":junction_1_2" tl="2" linkIndex="3" dir="s" state="O"/>
    <connection from="initial" to="before_junction" fromLane="0" toLane="0" via=":J0_0_0" dir="s" state="M"/>
    <connection from="initial" to="before_junction" fromLane="1" toLane="1" via=":J0_0_1" dir="s" state="M"/>
    <connection from="initial" to="before_junction" fromLane="2" toLane="2" via=":J0_0_2" dir="s" state="M"/>
    <connection from="ramp" to="final_stretch" fromLane="0" toLane="0" via=":junction_0_0" tl="2" linkIndex="0" dir="s" state="o"/>

    <connection from=":J0_0" to="before_junction" fromLane="0" toLane="0" dir="s" state="M"/>
    <connection from=":J0_0" to="before_junction" fromLane="1" toLane="1" dir="s" state="M"/>
    <connection from=":J0_0" to="before_junction" fromLane="2" toLane="2" dir="s" state="M"/>
    <connection from=":junction_0" to="final_stretch" fromLane="0" toLane="0" dir="s" state="M"/>
    <connection from=":junction_1" to="final_stretch" fromLane="0" toLane="0" dir="s" state="M"/>
    <connection from=":junction_1" to="final_stretch" fromLane="1" toLane="1" dir="s" state="M"/>
    <connection from=":junction_1" to="final_stretch" fromLane="2" toLane="2" dir="s" state="M"/>

</net>
