<?xml version="1.0" encoding="UTF-8"?>

<!-- generated on 2023-10-25 15:57:28 by Eclipse SUMO netedit Version 1.18.0
-->

<routes xmlns:xsi="http://www.w3.org/2001/XMLSchema-instance" xsi:noNamespaceSchemaLocation="http://sumo.dlr.de/xsd/routes_file.xsd">
    <!-- Routes -->
    <route id="r_0" edges="1toJ Jto2"/>
    <route id="r_1" edges="EtoJ Jto2"/>
</routes>
